Version 4
SHEET 1 1620 680
WIRE -256 -32 -368 -32
WIRE -144 -32 -256 -32
WIRE -48 -32 -144 -32
WIRE 208 -32 -48 -32
WIRE 544 -32 208 -32
WIRE -256 -16 -256 -32
WIRE -144 -16 -144 -32
WIRE 208 0 208 -32
WIRE -368 32 -368 -32
WIRE -48 64 -48 48
WIRE 48 64 -48 64
WIRE 384 64 368 64
WIRE -48 80 -48 64
WIRE 544 80 544 48
WIRE 576 80 544 80
WIRE 672 80 640 80
WIRE 688 80 672 80
WIRE 768 80 752 80
WIRE 864 80 768 80
WIRE 1056 80 864 80
WIRE -368 160 -368 112
WIRE -256 160 -256 48
WIRE -256 160 -368 160
WIRE -144 160 -144 48
WIRE -144 160 -256 160
WIRE -48 160 -144 160
WIRE 48 160 0 160
WIRE 432 160 368 160
WIRE -368 176 -368 160
WIRE 544 176 544 80
WIRE 544 176 496 176
WIRE 432 192 400 192
WIRE 0 208 0 160
WIRE 0 208 -256 208
WIRE 48 256 -144 256
WIRE 400 256 400 192
WIRE 400 256 368 256
WIRE 544 256 400 256
WIRE 672 256 672 80
WIRE 768 256 768 80
WIRE 1056 256 1056 80
WIRE -144 352 -144 256
WIRE 48 352 -48 352
WIRE 768 352 768 336
WIRE 768 352 368 352
WIRE 864 352 864 80
WIRE 960 352 864 352
WIRE -256 464 -256 208
WIRE -48 464 -48 432
WIRE 384 464 384 64
WIRE 864 464 864 352
WIRE 960 464 960 352
WIRE -256 544 -256 528
WIRE -144 544 -144 432
WIRE -144 544 -256 544
WIRE -48 544 -48 528
WIRE -48 544 -144 544
WIRE 208 544 208 416
WIRE 208 544 -48 544
WIRE 384 544 384 528
WIRE 384 544 208 544
WIRE 544 544 544 336
WIRE 544 544 384 544
WIRE 672 544 672 336
WIRE 672 544 544 544
WIRE 768 544 768 432
WIRE 768 544 672 544
WIRE 864 544 864 528
WIRE 864 544 768 544
WIRE 960 544 960 528
WIRE 960 544 864 544
WIRE 1056 544 1056 336
WIRE 1056 544 960 544
WIRE 208 560 208 544
FLAG 208 560 0
FLAG -368 176 0
FLAG -368 -32 Vs
FLAG 1056 80 Vo
FLAG 544 80 VM1
FLAG 672 80 VD1
SYMBOL PowerProducts\\LT3758A 208 208 R0
SYMATTR InstName U1
SYMBOL res -64 64 R0
SYMATTR InstName R1
SYMATTR Value 20k
SYMBOL res -64 -48 R0
SYMATTR InstName R2
SYMATTR Value 232k
SYMBOL cap -272 -16 R0
SYMATTR InstName C1
SYMATTR Value 10µ
SYMATTR SpiceLine V=100
SYMBOL cap -160 -16 R0
SYMATTR InstName C2
SYMATTR Value 2.2µ
SYMATTR SpiceLine V=100V
SYMBOL voltage -368 16 R0
WINDOW 123 24 126 Left 2
WINDOW 39 0 0 Left 0
SYMATTR Value2 AC 1
SYMATTR InstName V1
SYMATTR Value SINE(45 27 1k)
SYMBOL ind2 560 64 R180
WINDOW 0 36 80 Left 2
WINDOW 3 36 40 Left 2
SYMATTR InstName L1
SYMATTR Value 47µ
SYMATTR Type ind
SYMBOL ind2 656 240 R0
SYMATTR InstName L2
SYMATTR Value 47µ
SYMATTR Type ind
SYMBOL cap 640 64 R90
WINDOW 0 0 32 VBottom 2
WINDOW 3 32 32 VTop 2
SYMATTR InstName C3
SYMATTR Value 2.2µ
SYMATTR SpiceLine V=100
SYMBOL res 752 240 R0
SYMATTR InstName R3
SYMATTR Value 280k
SYMATTR SpiceLine tol=1
SYMBOL res 752 336 R0
SYMATTR InstName R4
SYMATTR Value 20k
SYMATTR SpiceLine tol=1
SYMBOL res 528 240 R0
SYMATTR InstName R5
SYMATTR Value 0.025
SYMBOL cap 368 464 R0
SYMATTR InstName C4
SYMATTR Value 4.7µ
SYMATTR SpiceLine V=10V
SYMBOL res -64 336 R0
SYMATTR InstName R6
SYMATTR Value 10k
SYMBOL cap -64 464 R0
SYMATTR InstName C5
SYMATTR Value 10n
SYMBOL cap -272 464 R0
SYMATTR InstName C6
SYMATTR Value 0.47µ
SYMBOL res -160 336 R0
SYMATTR InstName R7
SYMATTR Value 41.2k
SYMBOL cap 848 464 R0
SYMATTR InstName C8
SYMATTR Value 10µ
SYMATTR SpiceLine V=25
SYMBOL cap 944 464 R0
SYMATTR InstName C9
SYMATTR Value 33µ
SYMATTR SpiceLine V=35
SYMBOL diode 688 96 R270
WINDOW 0 32 32 VTop 2
WINDOW 3 0 32 VBottom 2
SYMATTR InstName D1
SYMATTR Value Dmbrs3100lt3
SYMBOL res 1040 240 R0
SYMATTR InstName Rload
SYMATTR Value 24
SYMBOL AutoGenerated\\FDMS2572 464 176 M0
SYMATTR InstName M1
TEXT -392 224 Left 2 !.ac dec 10 1 10000G
TEXT 568 -16 Left 2 !k1 l1 l2 1
TEXT 688 -112 Left 2 !.MODEL Dmbrs3100lt3 d\n+IS=0.000218691 RS=0.0139624 N=2.73664 EG=0.845343\n+XTI=4.78882 BV=100 IBV=5e-05 CJO=4.45302e-10\n+VJ=0.4 M=0.480577 FC=0.5 TT=0\n+KF=0 AF=1
TEXT -392 264 Left 2 !;.tran 2m
